Version 4
SHEET 1 880 680
WIRE 224 96 224 80
WIRE -112 112 -208 112
WIRE -16 112 -32 112
WIRE 16 112 -16 112
WIRE 112 112 96 112
WIRE 304 128 256 128
WIRE 352 128 304 128
WIRE -16 144 -16 112
WIRE 112 144 112 112
WIRE 192 144 176 144
WIRE -352 160 -352 112
WIRE -208 160 -208 112
WIRE 224 176 224 160
WIRE -16 240 -16 208
WIRE 112 240 112 208
WIRE 176 240 176 144
WIRE 208 240 176 240
WIRE 304 240 304 128
WIRE 304 240 288 240
WIRE 176 304 176 240
WIRE 208 304 176 304
WIRE 224 304 208 304
WIRE 304 304 304 240
WIRE 304 304 272 304
FLAG -208 240 0
FLAG -16 240 0
FLAG 112 240 0
FLAG 224 80 0
FLAG -352 240 0
FLAG -352 112 Vcc
FLAG 224 176 Vcc
SYMBOL voltage -208 144 R0
WINDOW 3 -136 161 Left 2
WINDOW 123 0 0 Left 2
WINDOW 39 0 0 Left 2
SYMATTR InstName V1
SYMATTR Value PULSE(0 5 0 1n 100n 100u 2u 4000)
SYMBOL res -16 96 R90
WINDOW 0 0 56 VBottom 2
WINDOW 3 32 56 VTop 2
SYMATTR InstName R1
SYMATTR Value 100k
SYMBOL res 112 96 R90
WINDOW 0 0 56 VBottom 2
WINDOW 3 32 56 VTop 2
SYMATTR InstName R2
SYMATTR Value 100k
SYMBOL cap -32 144 R0
SYMATTR InstName C1
SYMATTR Value 1µ
SYMBOL cap 96 144 R0
SYMATTR InstName C2
SYMATTR Value 100n
SYMBOL cap 272 288 R90
WINDOW 0 6 55 VBottom 2
WINDOW 3 32 32 VTop 2
SYMATTR InstName C3
SYMATTR Value 1n
SYMBOL Opamps\\opamp2 224 192 M180
SYMATTR InstName U1
SYMATTR Value LM358
SYMBOL voltage -352 144 R0
WINDOW 123 0 0 Left 2
WINDOW 39 0 0 Left 2
SYMATTR InstName V2
SYMATTR Value 15
SYMBOL res 192 256 R270
WINDOW 0 32 56 VTop 2
WINDOW 3 0 56 VBottom 2
SYMATTR InstName R3
SYMATTR Value 10k
TEXT -312 448 Left 2 !.inc LM358.101
TEXT -314 468 Left 2 !.tran 1.5
