Version 4
SHEET 1 2080 1092
WIRE -688 -32 -768 -32
WIRE -400 -32 -608 -32
WIRE -768 0 -768 -32
WIRE 1040 0 896 0
WIRE 1152 0 1040 0
WIRE 1360 0 1152 0
WIRE 1568 0 1360 0
WIRE -400 16 -400 -32
WIRE -400 16 -432 16
WIRE -368 16 -400 16
WIRE 1040 16 1040 0
WIRE -496 48 -496 16
WIRE -496 48 -528 48
WIRE -304 48 -304 16
WIRE -240 48 -304 48
WIRE -144 48 -240 48
WIRE -528 64 -528 48
WIRE -80 64 -80 48
WIRE -64 64 -80 64
WIRE 976 64 928 64
WIRE 1152 64 1152 0
WIRE 1360 64 1360 0
WIRE 1568 64 1568 0
WIRE -496 80 -496 48
WIRE -400 80 -432 80
WIRE -368 80 -400 80
WIRE -304 80 -304 48
WIRE 1056 112 1040 112
WIRE 1088 112 1056 112
WIRE -768 128 -768 80
WIRE -400 128 -400 80
WIRE -400 128 -768 128
WIRE -80 128 -80 112
WIRE -64 128 -80 128
WIRE -240 144 -240 48
WIRE -144 144 -144 112
WIRE 1056 176 1056 112
WIRE 1152 176 1152 160
WIRE 1360 176 1360 160
WIRE 1568 176 1568 160
WIRE 192 192 96 192
WIRE 336 208 256 208
WIRE 432 208 416 208
WIRE 448 208 432 208
WIRE 560 208 528 208
WIRE 656 208 560 208
WIRE -240 224 -240 208
WIRE -144 224 -144 208
WIRE 192 224 160 224
WIRE 768 224 720 224
WIRE 928 224 928 64
WIRE 928 224 848 224
WIRE 656 240 624 240
WIRE 432 256 432 208
WIRE 928 256 928 224
WIRE 960 256 928 256
WIRE 1056 256 1056 176
WIRE 1056 256 1040 256
WIRE 1072 256 1056 256
WIRE 1360 256 1152 256
WIRE 1568 256 1360 256
WIRE 688 272 688 256
WIRE 624 336 624 240
WIRE 912 336 624 336
WIRE 1152 336 1152 256
WIRE 1152 336 912 336
WIRE -608 352 -672 352
WIRE -432 352 -496 352
WIRE 912 368 912 336
WIRE -672 400 -672 352
WIRE -496 400 -496 352
WIRE 160 448 160 224
WIRE 192 448 160 448
WIRE 560 448 560 208
WIRE 560 448 272 448
WIRE 1072 448 1072 432
WIRE 1152 448 1152 432
WIRE 160 480 160 448
WIRE 784 480 736 480
WIRE 912 480 912 448
WIRE 1024 480 912 480
WIRE 736 496 736 480
WIRE 784 496 784 480
WIRE -272 512 -272 496
WIRE -672 528 -672 480
WIRE -496 528 -496 480
WIRE 1968 528 1936 528
WIRE 384 544 368 544
WIRE 368 560 368 544
WIRE 1840 560 1792 560
WIRE 1936 560 1936 528
WIRE 1936 560 1872 560
WIRE 2000 560 1936 560
WIRE 160 576 160 560
WIRE 1024 576 1024 480
WIRE 1056 576 1024 576
WIRE 1840 576 1840 560
WIRE 2032 576 2032 560
WIRE 1184 592 1120 592
WIRE 304 608 256 608
WIRE 784 608 784 576
WIRE 912 608 912 480
WIRE 1056 608 1024 608
WIRE 1504 624 1504 592
WIRE 1184 640 1184 592
WIRE 1232 640 1184 640
WIRE 368 672 368 656
WIRE 2032 672 2032 656
WIRE 128 704 -48 704
WIRE 256 720 256 688
WIRE 256 720 192 720
WIRE 1504 720 1504 704
WIRE 1520 720 1504 720
WIRE 1840 720 1792 720
WIRE 1936 720 1872 720
WIRE 2000 720 1936 720
WIRE -624 736 -688 736
WIRE -448 736 -512 736
WIRE 96 736 48 736
WIRE 128 736 96 736
WIRE 1504 736 1504 720
WIRE 1840 736 1840 720
WIRE 2032 736 2032 720
WIRE 96 768 96 736
WIRE 1024 768 1024 608
WIRE 1072 768 1024 768
WIRE 1184 768 1184 640
WIRE 1184 768 1152 768
WIRE 1024 784 1024 768
WIRE -688 816 -688 752
WIRE -512 816 -512 752
WIRE 1504 816 1504 800
WIRE 1936 864 1936 720
WIRE 1952 864 1936 864
WIRE 912 880 912 864
WIRE 1024 880 1024 864
WIRE -48 896 -48 704
WIRE 128 896 -48 896
WIRE 304 912 192 912
WIRE 416 912 384 912
WIRE 512 912 480 912
WIRE 0 928 -16 928
WIRE 96 928 96 848
WIRE 96 928 80 928
WIRE 128 928 96 928
WIRE -688 944 -688 896
WIRE -512 944 -512 896
WIRE -16 944 -16 928
WIRE 512 944 512 912
FLAG 1072 448 0
FLAG 1152 448 0
FLAG -432 352 Vcc
FLAG 224 176 0
FLAG 688 192 0
FLAG 368 672 0
FLAG 160 576 0
FLAG 160 688 0
FLAG 512 944 0
FLAG 2032 672 0
FLAG 880 144 0
FLAG 2032 816 0
FLAG 560 576 0
FLAG 896 0 Vcc
FLAG 160 880 0
FLAG -16 944 0
FLAG 736 496 0
FLAG 1088 560 0
FLAG 1232 640 Curr_sense
FLAG -48 704 Curr_sense
FLAG -272 512 gnd_low
FLAG 784 608 gnd_low
FLAG 912 880 gnd_low
FLAG 1056 176 base
FLAG 1296 112 base
FLAG 1504 112 base
FLAG -528 64 0
FLAG -64 64 Vcc
FLAG -64 128 Vsteady
FLAG 688 272 Vsteady
FLAG 224 240 Vsteady
FLAG 160 752 Vsteady
FLAG 160 944 Vsteady
FLAG 1088 624 Vsteady
FLAG -240 224 0
FLAG -144 224 0
FLAG 912 608 gnd_low
FLAG 1024 880 0
FLAG -496 528 0
FLAG -608 352 Vsteady
FLAG -672 528 0
FLAG -448 736 Vcc
FLAG -512 944 0
FLAG -624 736 Vsteady
FLAG -688 944 0
FLAG 432 256 CCCV_switch
FLAG 384 544 CCCV_switch
FLAG 1504 816 0
FLAG 1504 592 Vsteady
FLAG 1840 816 0
FLAG 1840 656 0
FLAG 1520 720 Vzener
FLAG 1712 720 Vzener
FLAG 1712 560 Vzener
FLAG 1952 864 CurrAdj
FLAG 48 736 CurrAdj
FLAG 1968 528 VoltAdj
FLAG 96 192 VoltAdj
SYMBOL res 864 208 R90
WINDOW 0 0 56 VBottom 2
WINDOW 3 32 56 VTop 2
SYMATTR InstName R1
SYMATTR Value 180R
SYMBOL voltage -496 384 R0
WINDOW 123 0 0 Left 2
WINDOW 39 0 0 Left 2
SYMATTR InstName V2
SYMATTR Value 15
SYMBOL res 1056 336 R0
SYMATTR InstName R4
SYMATTR Value 10k
SYMBOL cap 1136 368 R0
SYMATTR InstName C1
SYMATTR Value 2.2mF
SYMBOL res 1168 240 R90
WINDOW 0 0 56 VBottom 2
WINDOW 3 32 56 VTop 2
SYMATTR InstName R7
SYMATTR Value 120
SYMBOL res 1056 240 R90
WINDOW 0 0 56 VBottom 2
WINDOW 3 32 56 VTop 2
SYMATTR InstName R8
SYMATTR Value 8k
SYMBOL res 432 192 R90
WINDOW 0 0 56 VBottom 2
WINDOW 3 32 56 VTop 2
SYMATTR InstName R5
SYMATTR Value 1k
SYMBOL res 544 192 R90
WINDOW 0 0 56 VBottom 2
WINDOW 3 32 56 VTop 2
SYMATTR InstName R6
SYMATTR Value 1k
SYMBOL res 288 432 R90
WINDOW 0 0 56 VBottom 2
WINDOW 3 32 56 VTop 2
SYMATTR InstName R10
SYMATTR Value 10k
SYMBOL res 176 464 M0
SYMATTR InstName R11
SYMATTR Value 10k
SYMBOL res 400 896 R90
WINDOW 0 0 56 VBottom 2
WINDOW 3 32 56 VTop 2
SYMATTR InstName R9
SYMATTR Value 1k
SYMBOL LED 416 928 R270
WINDOW 0 72 32 VTop 2
WINDOW 3 0 32 VBottom 2
SYMATTR InstName D1
SYMBOL voltage 2032 560 M0
WINDOW 123 0 0 Left 2
WINDOW 39 0 0 Left 2
SYMATTR InstName V3
SYMATTR Value 2.5
SYMBOL cap 864 80 R0
WINDOW 3 -59 56 Left 2
SYMATTR Value 470n
SYMATTR InstName C2
SYMBOL voltage 2032 720 M0
WINDOW 123 0 0 Left 2
WINDOW 39 0 0 Left 2
SYMATTR InstName V4
SYMATTR Value 4.5
SYMBOL res 240 592 R0
SYMATTR InstName R17
SYMATTR Value 10k
SYMBOL cap 544 512 R0
SYMATTR InstName C3
SYMATTR Value 22µF
SYMBOL res 96 912 R90
WINDOW 0 0 56 VBottom 2
WINDOW 3 32 56 VTop 2
SYMATTR InstName R18
SYMATTR Value 470k
SYMBOL res 768 480 R0
SYMATTR InstName R19
SYMATTR Value 0.1
SYMBOL res 1008 768 R0
SYMATTR InstName R20
SYMATTR Value 10k
SYMBOL res 1168 784 M270
WINDOW 0 34 41 VTop 2
WINDOW 3 11 24 VBottom 2
SYMATTR InstName R21
SYMATTR Value 90k
SYMBOL res 896 352 R0
SYMATTR InstName R22
SYMATTR Value 3
SYMBOL Opamps\\UniversalOpamp2 160 720 M180
SYMATTR InstName U1
SYMBOL Opamps\\UniversalOpamp2 160 912 M180
SYMATTR InstName U2
SYMBOL Opamps\\UniversalOpamp2 1088 592 M180
SYMATTR InstName U3
SYMBOL Opamps\\UniversalOpamp2 224 208 M180
SYMATTR InstName U4
SYMBOL Opamps\\UniversalOpamp2 688 224 M180
SYMATTR InstName U5
SYMBOL npn 304 560 R0
SYMATTR InstName Q1
SYMBOL npn 976 16 R0
SYMATTR InstName Q2
SYMBOL npn 1088 64 R0
SYMATTR InstName Q3
SYMBOL res 1136 160 R0
SYMATTR InstName R2
SYMATTR Value 0.1
SYMATTR SpiceLine tol=1%
SYMBOL npn 1296 64 R0
SYMATTR InstName Q4
SYMBOL res 1344 160 R0
SYMATTR InstName R3
SYMATTR Value 0.1
SYMATTR SpiceLine tol=1%
SYMBOL npn 1504 64 R0
SYMATTR InstName Q5
SYMBOL res 1552 160 R0
SYMATTR InstName R12
SYMATTR Value 0.1
SYMATTR SpiceLine tol=1%
SYMBOL voltage -768 -16 R0
WINDOW 123 0 0 Left 2
WINDOW 39 0 0 Left 2
SYMATTR InstName V1
SYMATTR Value SINE(0 25.2 50)
SYMBOL res -704 -16 R270
WINDOW 0 32 56 VTop 2
WINDOW 3 0 56 VBottom 2
SYMATTR InstName R13
SYMATTR Value 4
SYMBOL diode -496 32 R270
WINDOW 0 32 32 VTop 2
WINDOW 3 0 32 VBottom 2
SYMATTR InstName D2
SYMBOL diode -368 32 R270
WINDOW 0 32 32 VTop 2
WINDOW 3 -5 34 VBottom 2
SYMATTR InstName D3
SYMBOL diode -368 64 M90
WINDOW 0 67 30 VBottom 2
WINDOW 3 -27 17 VTop 2
SYMATTR InstName D4
SYMBOL diode -496 64 M90
WINDOW 0 60 29 VBottom 2
WINDOW 3 -32 16 VTop 2
SYMATTR InstName D5
SYMBOL cap -256 144 R0
SYMATTR InstName C4
SYMATTR Value 10m
SYMBOL diode -160 48 R0
WINDOW 0 5 -19 Left 2
WINDOW 3 -23 46 Left 2
SYMATTR InstName D6
SYMBOL cap -160 144 R0
SYMATTR InstName C5
SYMATTR Value 100µ
SYMBOL res 80 752 R0
WINDOW 0 30 46 Left 2
WINDOW 3 33 78 Left 2
SYMATTR InstName R14
SYMATTR Value 1k
SYMBOL voltage -672 384 R0
WINDOW 123 0 0 Left 2
WINDOW 39 0 0 Left 2
SYMATTR InstName V5
SYMATTR Value 14.3
SYMBOL zener 1520 800 R180
WINDOW 0 24 64 Left 2
WINDOW 3 24 0 Left 2
SYMATTR InstName D7
SYMATTR Value BZX384B2V4
SYMBOL res 1488 608 R0
SYMATTR InstName R15
SYMATTR Value 5.6k
SYMBOL res 1696 736 R270
WINDOW 0 32 56 VTop 2
WINDOW 3 0 56 VBottom 2
SYMATTR InstName R16
SYMATTR Value 5k
SYMBOL res 1824 720 R0
SYMATTR InstName R23
SYMATTR Value 5k
SYMBOL res 1696 576 R270
WINDOW 0 32 56 VTop 2
WINDOW 3 0 56 VBottom 2
SYMATTR InstName R24
SYMATTR Value 5k
SYMBOL res 1824 560 R0
SYMATTR InstName R25
SYMATTR Value 5k
TEXT -1176 544 Left 2 ;.STEP param RL 0.5k 1k 0.5k\n.STEP param Vadj 0 5 1\n.STEP param Cur 0 10 1\n.STEP param RL 1 20\n \n.op\n.STEP param I_load 0 0.5
TEXT -1176 480 Left 2 !.inc LM358.101
TEXT -1168 800 Left 2 ;.op\n.STEP param Vadj 0 7.5 2
TEXT -1176 424 Left 2 ;.OPTIONS plotwinsize=0
TEXT -1168 272 Left 2 ;.op\n.STEP param RL 1 20
TEXT -1168 384 Left 2 ;.tran 100us
TEXT -1160 240 Left 2 !.tran 600m
TEXT -520 1008 Left 2 ;SINE(15 1 50)
TEXT -856 1008 Left 2 ;SINE(14.3 0.1 50)
TEXT 1352 824 Left 2 ;2.4V
